LAMMPS (23 Oct 2017)

variable temp_lower equal 10.
variable temp_anneal equal 1400.
variable temp_upper equal 3500.
variable massvar 	equal 28.09

variable unit_cell equal 6
variable eng_cell_k equal 1
variable i_max equal 1

variable i loop 1
variable ekin equal 1500
variable vel equal "(2*1.602*10^(-19.) * v_ekin/(v_massvar*1.6605*10^(-27)))^(1./2.) / 100."

variable v0 equal 1015.07135821103
Velocity v: 1015.07135821103

variable cell_size	equal "floor((((v_ekin*v_i_max*v_eng_cell_k)/8.)^(1./3.)) + v_unit_cell) + 1"
Cell_size a: 12

variable seed equal 10516

units 		metal
boundary 	p p p

lattice			diamond 5.432
Lattice spacing in x,y,z = 5.432 5.432 5.432

variable box_min equal "v_cell_size * -0.2"
variable box_max equal "v_cell_size * 1.3"

read_data deform.dat #add merge
  orthogonal box = (5.50686 5.50686 -9.3994) to (97.7011 97.7011 112.607)
  reading atoms ...
  54872 atoms
  reading velocities ...
  54872 velocities

variable tmp equal "lx"
variable L0 equal 92.1942891835847
Initial Length, L0: 92.1942891835847

neighbor 		0.3 bin
neigh_modify	delay 1

#use Tersoff Potential
mass			* 28.09
#pair_style		tersoff
#pair_coeff		* * Si.tersoff Si

pair_style		sw
pair_coeff		* * Si.sw Si
Reading potential file Si.sw with DATE: 2007-06-11

variable therstat_damp equal 0.1
variable barostat_damp equal 0.4

reset_timestep 0
timestep		0.001

fix 			1 all npt temp 10 10 0.1 z 0.0 0.0 0.4

thermo_style 	custom step lx ly lz press pxx pyy pzz pe atoms temp dt
thermo			100
thermo_modify	lost ignore flush yes

variable strainx equal "(lx - v_L0)/v_L0"
variable strainy equal "(ly - v_L0)/v_L0"
variable p1 equal "v_strainx"
variable p2 equal "v_strainy"
#Pressure in GPa
variable p3 equal "-pxx/10000"
variable p4 equal "-pyy/10000"
variable p5 equal "-pzz/10000"
variable st equal "step"
variable at equal "atoms"
variable tst equal "dt"
variable tem equal "temp"
variable LX equal "lx"
variable LY equal "ly"
variable LZ equal "lz"

dump 1 all atom 200 dump_recoil

#thermostat parameters
#variable therstat_seed equal 23145
#variable therstat_damp equal 0.5

run 500
  update every 1 steps, delay 1 steps, check yes
Step Lx Ly Lz Press Pxx Pyy Pzz PotEng Atoms Temp Dt
0    92.194289    92.194289    122.00679    16222.027    24652.562    24015.623   -2.1050022   -223978.42    54872    10.696337        0.001
Loop time of 58.6034 on 32 procs for 500 steps with 54872 atoms

#unfix 5

################# Thermostat and Zero Force Border #####################

variable therstat_width equal 3.0

variable xl equal "xlo"
variable xh equal "xhi"
variable xth equal "xlo + v_therstat_width"

variable yl equal "ylo"
variable yh equal "yhi"
variable yth equal "ylo + v_therstat_width"

variable zl equal "zlo"
variable zh equal "zhi"
variable zth equal "zlo + v_therstat_width"

#xy
region	   therstat_xy block 5.50685540820766 97.7011445917924 5.50685540820766 97.7011445917924 -9.39967581845385 -6.39967581845385 units box
group	   therstat_xy_group dynamic all region therstat_xy every 10
dynamic group therstat_xy_group defined

#xz
region	   therstat_xz block 5.50685540820766 97.7011445917924 5.50685540820766 8.50685540820766 -9.39967581845385 112.607675818456 units box
group	   therstat_xz_group dynamic all region therstat_xz every 10
dynamic group therstat_xz_group defined

#yz
region     therstat_yz block 5.50685540820766 8.50685540820766 5.50685540820766 97.7011445917924 -9.39967581845385 112.607675818456 units box
group	   therstat_yz_group dynamic all region therstat_yz every 10
dynamic group therstat_yz_group defined

fix	    51 therstat_xy_group temp/berendsen 10 10 0.1
fix	    52 therstat_xz_group temp/berendsen 10 10 0.1
fix	    53 therstat_yz_group temp/berendsen 10 10 0.1

####################### Recoil Insertion ###############################
variable tmp2 equal "atoms"

variable x_max equal 0.01 # A
variable dt_min equal 0.00001 #ps
variable dt_max equal 10 #ps

fix 11 all dt/reset 1 1e-05 10 0.01 units box
variable dt_new equal "v_x_max/v_vel"

#Start loop

label loop
#dump 1 all atom 100 testfile.$i

### Calculate velocity components

# This FIRST random seed is used for all the following random nr. calculations!!!!

variable th_max  equal "2*PI"

variable theta 	equal random(0,6.28318530717959,10516)
variable u   	equal random(-1,1,10516)

variable th_tmp equal 1.06723455105997
variable u_tmp equal 0.849565863609314

variable vx equal "v_vel * (1- v_u_tmp * v_u_tmp)^(0.5)*cos(v_th_tmp)"
# this random seed is NOT used
variable vy equal "v_vel*(1- v_u_tmp * v_u_tmp)^(0.5)*sin(v_th_tmp)"
variable vz equal "v_vel* v_u_tmp"
Velocity vx: 258.371979032001
Velocity vy: 468.968878306676
Velocity vz: 862.369975063633

#choose random atom - this random seed is NOT used
variable rn_id equal floor(random(0,54872,10516))
variable a equal 6225
Random id: 6225

#define group that contains the chosen atom
group 1 id 6225
1 atoms in group 1
velocity 1 set 258.371979032001 468.968878306676 862.369975063633 units box

#reset_timestep 0

run 10000
Step Lx Ly Lz Press Pxx Pyy Pzz PotEng Atoms Temp Dt
500    92.194289    92.194289    122.00735    17765.839    24958.109    24989.596    3349.8134   -223984.09    54872      221.477        1e-05
Averages over the last 51 of 101 rows, steps 5500 to 10500:
Lx Ly Lz Press Pxx Pyy Pzz PotEng Atoms Temp Dt
92.1943 92.1943 122.049 15930 24254.6 23536.6 -1.28221 -223906 54872 15.154 0.00116834
Loop time of 1274.07 on 32 procs for 10000 steps with 54872 atoms

#undump 1
next i
jump recoil1.in loop

### last equilibrium step - check
run 1000
Step Lx Ly Lz Press Pxx Pyy Pzz PotEng Atoms Temp Dt
10500    92.194289    92.194289    122.03208    15779.188    23956.445    23397.686   -16.565978   -223982.07    54872    9.9340609 0.0022436565
Averages over the last 6 of 11 rows, steps 11000 to 11500:
Lx Ly Lz Press Pxx Pyy Pzz PotEng Atoms Temp Dt
92.1943 92.1943 122.035 15767.9 24037.5 23313 -46.6886 -223982 54872 10.002 0.00256235
Loop time of 127.459 on 32 procs for 1000 steps with 54872 atoms

variable j loop 1
label reset

velocity 1 set 0.0 0.0 0.0 units box

next j
jump recoil1.in reset

write_data recoil1.dat

run 100
Step Lx Ly Lz Press Pxx Pyy Pzz PotEng Atoms Temp Dt
11500    92.194289    92.194289    122.03602    15784.522     24053.39    23324.082   -23.905449   -223982.39    54872    10.026784 0.0023532991
Loop time of 12.7397 on 32 procs for 100 steps with 54872 atoms
